src/test/resources/matpower/case9241pegase.txt
 13/05/91 CYME INTERNATIONAL    100.0 1991 S IEEE 300-BUS TEST SYSTEM
BUS DATA FOLLOWS                   9241 ITEMS
   1 bus-1   220   0  6  0 1.0072 -36.86   378.40     98.50    0.00    0.00  220.00 1.0000    0.00    0.00  0.0000  0.1661    0
   2 bus-2   154   0  1  2 1.0317 -12.03     0.00      0.00  -81.40    6.64  154.00 1.0317   42.19  -20.45  0.0000  0.0000    0
   3 bus-3   220   0  5  0 1.0178 -21.79   151.00     48.80    0.00    0.00  220.00 1.0000    0.00    0.00  0.0000  0.0469    0
   4 bus-4   220   0  5  0 1.0201  -7.22   171.41     23.40    0.00    0.00  220.00 1.0000    0.00    0.00  0.0000  0.0210    0
   5 bus-5   220   0  6  0 0.9898 -49.87    45.95     14.00    0.00    0.00  220.00 1.0000    0.00    0.00  0.0000  0.1334    0
   6 bus-6   380   0  6  2 1.0385 -42.24     0.00      0.00  701.00  183.79  380.00 1.0385  524.53 -211.57  0.0000  0.0000    0
   7 bus-7   110   0 21  0 0.9691 -36.18    31.03     10.30    0.00    0.00  110.00 1.0000    0.00    0.00  0.0000  0.0065    0
   8 bus-8   154   0  1  2 1.0230 -20.77     0.00      0.00  499.70   -0.95  154.00 1.0230  251.73 -246.25  0.0000  0.0000    0
   9 bus-9   154   0  1  0 1.0327  -3.65    14.30      2.00    0.00    0.00  154.00 1.0000    0.00    0.00  0.0000  0.0191    0
  10 bus-10  220   0  5  0 1.0335 -24.65   134.00     24.70    0.00    0.00  220.00 1.0000    0.00    0.00  0.0000  0.1244    0
  11 bus-11  150   0  9  0 0.9651 -31.47     0.00      0.00    0.00    0.00  150.00 1.0000    0.00    0.00  0.0000  0.0000    0
  12 bus-12  150   0  9  0 1.0345 -26.38    -6.11      2.00    0.00    0.00  150.00 1.0000    0.00    0.00  0.0000  0.0047    0
  13 bus-13  220   0  6  0 1.0139 -48.75   -22.74     -8.32    0.00    0.00  220.00 1.0000    0.00    0.00  0.0000  0.0650    0
  14 bus-14  380   0  9  0 1.1415 -21.56    13.50     14.80    0.00    0.00  380.00 1.0000    0.00    0.00  0.0000  1.3244    0
  15 bus-15  220   0  4  0 1.0216 -48.93    59.67     26.70    0.00    0.00  220.00 1.0000    0.00    0.00  0.0000  0.1284    0
  16 bus-16  154   0  1  0 1.0324   6.06    30.60      4.30    0.00    0.00  154.00 1.0000    0.00    0.00  0.0000  0.0515    0
  17 bus-17  220   0  3  0 1.0104   6.15    67.68     12.10    0.00    0.00  220.00 1.0000    0.00    0.00  0.0000  0.0218    0
  18 bus-18  380   0  3  2 1.0267  18.11     0.00      0.00  467.50  201.91  380.00 1.0267  212.97  -93.48  0.0000  0.0000    0
  19 bus-19  110   0 12  0 1.0051 -38.46    25.33      7.50    0.00    0.00  110.00 1.0000    0.00    0.00  0.0000  0.0239    0
  20 bus-20  154   0  1  0 1.0245   6.68     1.40      0.20    0.00    0.00  154.00 1.0000    0.00    0.00  0.0000  0.0493    0
  21 bus-21  220   0  5  0 1.0315 -22.31   161.20     39.30    0.00    0.00  220.00 1.0000    0.00    0.00  0.0000  0.3071    0
  22 bus-22  220   0  5  0 1.0316 -18.75     0.00     -0.00    0.00    0.00  220.00 1.0000    0.00    0.00  0.0000  0.0085    0
  23 bus-23  110   0 19  0 1.0248 -25.63    19.62      7.10    0.00    0.00  110.00 1.0000    0.00    0.00  0.0000  0.0115    0
  24 bus-24  110   0 21  0 0.9608 -32.30    17.22      5.70    0.00    0.00  110.00 1.0000    0.00    0.00  0.0000  0.0122    0
  25 bus-25  220   0  3  2 1.0285  12.40     0.00      0.00  319.60  164.04  220.00 1.0285  179.43  -66.21  0.0000  0.0000    0
  26 bus-26  380   0  5  0 1.0296  -3.34   167.30     54.80    0.00    0.00  380.00 1.0000    0.00    0.00  0.0000  1.1054    0
  27 bus-27  380   0 13  0 1.0854  13.45    -0.00     -0.00    0.00    0.00  380.00 1.0000    0.00    0.00  0.0000  0.1482    0
  28 bus-28  150   0  9  0 1.0049 -31.84     0.00      0.00    0.00    0.00  150.00 1.0000    0.00    0.00  0.0000  0.0000    0
  29 bus-29  380   0  5  0 1.0046 -13.57   152.90     49.40    0.00    0.00  380.00 1.0000    0.00    0.00  0.0000  0.2765    0
  30 bus-30  150   0  9  0 1.0235 -29.72    -0.00      0.00    0.00    0.00  150.00 1.0000    0.00    0.00  0.0000  0.0056    0
  31 bus-31  150   0  9  0 0.9057 -35.51    69.68     43.20    0.00    0.00  150.00 1.0000    0.00    0.00  0.0000  0.0630    0
  32 bus-32  220   0  4  2 1.0032 -43.01     0.00      0.00    8.00   -1.02  220.00 1.0032    5.91   -4.56  0.0000  0.0000    0
  33 bus-33  220   0  4  2 1.0265 -38.55     0.00      0.00    5.30   -0.56  220.00 1.0265    2.27   -1.08  0.0000  0.0000    0
  34 bus-34  110   0 19  0 1.0285 -24.56    13.52      4.90    0.00    0.00  110.00 1.0000    0.00    0.00  0.0000  0.0180    0
  35 bus-35  110   0 12  0 1.0265 -36.72    10.51      3.50    0.00    0.00  110.00 1.0000    0.00    0.00  0.0000  0.0031    0
  36 bus-36  220   0 19  0 1.0452 -21.27    -0.00     -0.00    0.00    0.00  220.00 1.0000    0.00    0.00  0.0012  0.1534    0
  37 bus-37  110   0 18  0 0.9722 -29.51     9.21      2.60    0.00    0.00  110.00 1.0000    0.00    0.00  0.0000  0.0200    0
  38 bus-38  220   0  8  0 1.0229  25.56    42.75     12.80    0.00    0.00  220.00 1.0000    0.00    0.00  0.0000  0.1330    0
  39 bus-39  150   0 10  2 1.0035 -38.30     0.00      0.00   34.30    4.77  150.00 1.0035   17.76   -7.14  0.0000  0.0000    0
  40 bus-40  110   0 23  0 0.9991 -31.84    16.02      4.54    0.00    0.00  110.00 1.0000    0.00    0.00  0.0000  0.0010    0
  41 bus-41  154   0  1  0 1.0086  -8.83    27.90      4.00    0.00    0.00  154.00 1.0000    0.00    0.00  0.0000  0.0423    0
  42 bus-42  380   0  4  0 1.0424 -49.18    20.82      7.90    0.00    0.00  380.00 1.0000    0.00    0.00  0.0000  0.2689    0
  43 bus-43  154   0  1  0 1.0287 -15.91    12.60      1.80    0.00    0.00  154.00 1.0000    0.00    0.00  0.0000  0.0203    0
  44 bus-44  220   0  5  0 1.0409 -22.52    -0.00      0.00    0.00    0.00  220.00 1.0000    0.00    0.00  0.0000  0.0727    0
  45 bus-45  110   0 19  0 1.0480 -25.29    10.11      3.70    0.00    0.00  110.00 1.0000    0.00    0.00  0.0000  0.0081    0
  46 bus-46  110   0 18  0 0.9587 -29.32    10.01      2.70    0.00    0.00  110.00 1.0000    0.00    0.00  0.0000  0.0114    0
  47 bus-47  110   0 18  0 0.9859 -27.82     6.31      0.00    0.00    0.00  110.00 1.0000    0.00    0.00  0.0000  0.0067    0
  48 bus-48  110   0 15  0 1.0455 -26.61     2.90      0.90    0.00    0.00  110.00 1.0000    0.00    0.00  0.0000  0.0060    0
  49 bus-49  220   0  6  2 1.0203 -36.09     0.00      0.00  309.20   62.33  220.00 1.0203  218.52  -75.97  0.0000  0.0000    0
  50 bus-50  154   0  1  0 1.0250  -4.46    48.80      6.90    0.00    0.00  154.00 1.0000    0.00    0.00  0.0000  0.0871    0
  51 bus-51  220   0  4  2 1.0067 -48.12     0.00      0.00 -144.50   -0.31  220.00 1.0067    5.48   -4.19  0.0000  0.0000    0
  52 bus-52  150   0  8  0 1.0173   0.51   127.60     31.80    0.00    0.00  150.00 1.0000    0.00    0.00  0.0000  0.2051    0
  53 bus-53  220   0  5  0 1.0534  -9.37    48.65     16.10    0.00    0.00  220.00 1.0000    0.00    0.00  0.0000  0.0714    0
  54 bus-54  220   0  6  0 1.0239 -35.66   110.50    -26.80    0.00    0.00  220.00 1.0000    0.00    0.00  0.0000  0.1637    0
  55 bus-55  220   0  3  0 0.9968   9.00     0.00     -0.00    0.00    0.00  220.00 1.0000    0.00    0.00  0.0000  0.0123    0
  56 bus-56  220   0  3  0 1.0106 -16.92   140.00     79.70    0.00    0.00  220.00 1.0000    0.00    0.00  0.0000  0.0650    0
  57 bus-57  154   0  1  0 1.0065  -9.69    21.60      3.00    0.00    0.00  154.00 1.0000    0.00    0.00  0.0000  0.0354    0
  58 bus-58  380   0  5  0 1.0271 -22.18     0.00      0.00    0.00    0.00  380.00 1.0000    0.00    0.00  0.0000  0.0231    0
  59 bus-59  220   0  5  0 1.0267 -24.17   119.20     20.70    0.00    0.00  220.00 1.0000    0.00    0.00  0.0000  0.0331    0
  60 bus-60  110   0 18  0 1.0243 -19.93     0.24     -1.66    0.00    0.00  110.00 1.0000    0.00    0.00  0.0000  0.0065    0
  61 bus-61  380   0  3  0 1.0927  45.90    -0.00      0.00    0.00    0.00  380.00 1.0000    0.00    0.00  0.0000  0.5857    0
  62 bus-62  110   0 18  0 0.9702 -27.71    -0.00      0.00    0.00    0.00  110.00 1.0000    0.00    0.00  0.0000  0.0134    0
  63 bus-63  380   0  3  0 1.0203   5.46   187.90    110.20    0.00    0.00  380.00 1.0000    0.00    0.00  0.0000  0.2125    0
  64 bus-64  110   0 15  0 1.0582 -24.08    14.92      5.50    0.00    0.00  110.00 1.0000    0.00    0.00  0.0000  0.0131    0
  65 bus-65  150   0  9  0 0.9204 -33.98   -18.52      6.10    0.00    0.00  150.00 1.0000    0.00    0.00  0.0000  0.0079    0
  66 bus-66  110   0 19  0 1.0758 -17.39     4.61      1.70    0.00    0.00  110.00 1.0000    0.00    0.00  0.0000  0.0232    0
  67 bus-67  380   0 18  0 1.0768 -22.67     0.00      0.00    0.00    0.00  380.00 1.0000    0.00    0.00  0.0010  0.8213    0
  68 bus-68  110   0 18  0 0.9323 -32.56    10.81      5.10    0.00    0.00  110.00 1.0000    0.00    0.00  0.0000  0.0109    0
  69 bus-69  150   0  8  0 1.0164  -0.75    62.87     20.50    0.00    0.00  150.00 1.0000    0.00    0.00  0.0000  0.0115    0
  70 bus-70  154   0  1  0 1.0218  -7.28     0.00      0.00    0.00    0.00  154.00 1.0000    0.00    0.00  0.0000  0.0264    0
  71 bus-71  150   0  8  0 1.0457   2.67   126.30     42.40    0.00    0.00  150.00 1.0000    0.00    0.00  0.0000  0.5524    0
  72 bus-72  220   0  4  0 1.0073 -41.16     6.91     -4.60    0.00    0.00  220.00 1.0000    0.00    0.00  0.0000  0.0575    0
  73 bus-73  110   0 12  0 1.0113 -38.96    15.72      5.20    0.00    0.00  110.00 1.0000    0.00    0.00  0.0000  0.0011    0
  74 bus-74  150   0  9  0 1.0485 -29.25     0.00      0.00    0.00    0.00  150.00 1.0000    0.00    0.00  0.0000  0.0000    0
  75 bus-75  220   0  4  0 1.0190 -53.24    38.74      6.10    0.00    0.00  220.00 1.0000    0.00    0.00  0.0000  0.0117    0
  76 bus-76  220   0  8  0 1.0229  25.57    22.13     10.70    0.00    0.00  220.00 1.0000    0.00    0.00  0.0000  0.1421    0
  77 bus-77  220   0  4  0 1.0067 -49.60    -0.00     -0.00    0.00    0.00  220.00 1.0000    0.00    0.00  0.0000  0.0073    0
  78 bus-78  110   0 18  0 0.9818 -20.87     0.00     -0.00    0.00    0.00  110.00 1.0000    0.00    0.00  0.0000  0.0083    0
  79 bus-79  380   0  3  0 1.0144  13.84   138.80    136.70    0.00    0.00  380.00 1.0000    0.00    0.00  0.0000  0.0876    0
  80 bus-80  220   0 23  2 1.0684 -26.94     0.00      0.00   43.20    2.23  220.00 1.0684  139.94  -43.78  0.0000  0.0000    0
  81 bus-81  150   0  1  0 1.0109  61.41    67.76     19.18    0.00    0.00  150.00 1.0000    0.00    0.00  0.0000  0.0147    0
  82 bus-82  110   0  1  0 1.0324 -34.39    22.02      5.10    0.00    0.00  110.00 1.0000    0.00    0.00  0.0000  0.0069    0
  83 bus-83  220   0  3  0 0.9803  13.45     0.00      0.00    0.00    0.00  220.00 1.0000    0.00    0.00  0.0000  0.0662    0
  84 bus-84  110   0 19  0 1.0187 -30.24     1.00      0.30    0.00    0.00  110.00 1.0000    0.00    0.00  0.0000  0.0019    0
  85 bus-85  154   0  1  0 1.0221  16.41    20.90      3.00    0.00    0.00  154.00 1.0000    0.00    0.00  0.0000  0.0574    0
  86 bus-86  150   0  9  0 1.0511 -24.67     0.00      0.00    0.00    0.00  150.00 1.0000    0.00    0.00  0.0000  0.0012    0
  87 bus-87  110   0 18  0 1.0179 -15.04    21.52      5.10    0.00    0.00  110.00 1.0000    0.00    0.00  0.0000  0.0050    0
  88 bus-88  220   0  6  0 1.0067 -37.07    71.98     28.80    0.00    0.00  220.00 1.0000    0.00    0.00  0.0000  0.1100    0
  89 bus-89  380   0  2  0 0.9910  -5.00     0.00      0.00    0.00    0.00  380.00 1.0000    0.00    0.00  0.0020  0.0453    0
  90 bus-90  220   0  5  0 1.0420 -27.99   363.25    115.39    0.00    0.00  220.00 1.0000    0.00    0.00  0.0000  0.0395    0
  91 bus-91  150   0  8  0 1.0270   0.21    -0.00      0.00    0.00    0.00  150.00 1.0000    0.00    0.00  0.0000  0.0002    0
  92 bus-92  380   0  3  0 1.0222   3.83   192.90     73.30    0.00    0.00  380.00 1.0000    0.00    0.00  0.0000  0.2075    0
  93 bus-93  110   0 19  0 1.0591 -21.28    17.52      6.30    0.00    0.00  110.00 1.0000    0.00    0.00  0.0000  0.0026    0
  94 bus-94  110   0 19  0 1.0077 -25.49    33.14     12.00    0.00    0.00  110.00 1.0000    0.00    0.00  0.0000  0.0065    0
  95 bus-95  150   0  9  0 0.9800 -30.35    40.45     25.00    0.00    0.00  150.00 1.0000    0.00    0.00  0.0000  0.0982    0
  96 bus-96  220   0  5  0 1.0368 -15.46   193.17     53.37    0.00    0.00  220.00 1.0000    0.00    0.00  0.0000  0.0458    0
  97 bus-97  380   0  1  0 1.0533   2.67     0.00      0.00    0.00    0.00  380.00 1.0000    0.00    0.00  0.0000  0.0938    0
  98 bus-98  220   0  3  0 1.0481  -2.63    90.70     25.50    0.00    0.00  220.00 1.0000    0.00    0.00  0.0000  0.0311    0
  99 bus-99  380   0  6  0 1.0251 -33.27   176.30    -58.90    0.00    0.00  380.00 1.0000    0.00    0.00  0.0000  0.2477    0
 100 bus-100 150   0  9  0 1.0339 -29.93    35.94     22.30    0.00    0.00  150.00 1.0000    0.00    0.00  0.0000  0.0000    0
 101 bus-101 150   0  9  0 0.9648 -31.48    -0.00      0.00    0.00    0.00  150.00 1.0000    0.00    0.00  0.0000  0.0029    0
 102 bus-102 220   0  6  0 1.0040 -50.62     0.00     -0.00    0.00    0.00  220.00 1.0000    0.00    0.00  0.0000  0.0377    0
 103 bus-103 150   0  9  0 0.9920 -34.27    65.07     40.30    0.00    0.00  150.00 1.0000    0.00    0.00  0.0000  0.0543    0
 104 bus-104 220   0  6  0 0.9654 -55.94    51.36     -8.80    0.00    0.00  220.00 1.0000    0.00    0.00  0.0000  0.0215    0
 105 bus-105 380   0  6  0 1.0365 -34.25    -0.00     -0.00    0.00    0.00  380.00 1.0000    0.00    0.00  0.0000  0.8255    0
 106 bus-106 380   0 23  0 1.1625 -22.49     0.00     -0.00    0.00    0.00  380.00 1.0000    0.00    0.00  0.0000  0.3119    0
 107 bus-107 380   0  3  2 1.0831  41.62     0.00      0.00  570.00  -75.96  380.00 1.0831  253.85 -113.79  0.0000  0.0000    0
 108 bus-108 110   0 18  0 1.0052 -17.95     3.80      1.30    0.00    0.00  110.00 1.0000    0.00    0.00  0.0000  0.0040    0
 109 bus-109 154   0  1  0 1.0049 -11.90   137.00     19.50    0.00    0.00  154.00 1.0000    0.00    0.00  0.0000  0.0490    0
 110 bus-110 150   0  9  0 0.9943 -32.08     0.00      0.00    0.00    0.00  150.00 1.0000    0.00    0.00  0.0000  0.0000    0
 111 bus-111 220   0 11  0 1.0498 -22.30    61.07     36.00    0.00    0.00  220.00 1.0000    0.00    0.00  0.0000  0.0309    0
 112 bus-112 220   0  3  0 1.0305  -9.59     0.00      0.00    0.00    0.00  220.00 1.0000    0.00    0.00  0.0000  0.0324    0
 113 bus-113 380   0  5  0 1.0274 -14.49    -0.00     -0.00    0.00    0.00  380.00 1.0000    0.00    0.00  0.0000  0.0653    0
 114 bus-114 154   0  1  0 1.0265   9.78    55.70      7.90    0.00    0.00  154.00 1.0000    0.00    0.00  0.0000  0.0421    0
 115 bus-115 220   0  5  0 1.0620 -20.09     0.00     -0.00    0.00    0.00  220.00 1.0000    0.00    0.00  0.0000  0.0421    0
 116 bus-116 110   0 19  0 1.0378 -21.17     1.80      0.70    0.00    0.00  110.00 1.0000    0.00    0.00  0.0000  0.0030    0
 117 bus-117 110   0 18  0 1.0025 -24.31    40.04     16.00    0.00    0.00  110.00 1.0000    0.00    0.00  0.0000  0.0052    0
 118 bus-118 380   0  5  0 1.0239 -11.32    -0.00      0.00    0.00    0.00  380.00 1.0000    0.00    0.00  0.0000  0.3656    0
 119 bus-119 150   0  9  0 1.0666 -21.23     0.00      0.00    0.00    0.00  150.00 1.0000    0.00    0.00  0.0000  0.0009    0
 120 bus-120 154   0  1  0 1.0177 -24.51   140.60     20.10    0.00    0.00  154.00 1.0000    0.00    0.00  0.0000  0.1381    0
 121 bus-121 110   0 15  0 1.0617 -25.75    45.15     14.10    0.00    0.00  110.00 1.0000    0.00    0.00  0.0000  0.0019    0
 122 bus-122 220   0  3  0 1.0026   8.04    -0.00      0.00    0.00    0.00  220.00 1.0000    0.00    0.00  0.0000  0.0575    0
 123 bus-123 220   0 11  2 1.0415 -19.87     0.00      0.00   24.90    8.45  220.00 1.0415   18.84   -6.06  0.0000  0.0000    0
 124 bus-124 220   0  5  2 1.0771   8.31     0.00      0.00  861.30   69.97  220.00 1.0771  440.32 -172.59  0.0000  0.0000    0
 125 bus-125 110   0 18  0 1.0222 -19.97     3.42      2.68    0.00    0.00  110.00 1.0000    0.00    0.00  0.0000  0.0146    0
 126 bus-126 154   0  1  0 1.0098   3.64     0.00     -0.00    0.00    0.00  154.00 1.0000    0.00    0.00  0.0000  0.0264    0
 127 bus-127 220   0  6  0 1.0218 -28.83    -0.00     -0.00    0.00    0.00  220.00 1.0000    0.00    0.00  0.0000  0.0430    0
 128 bus-128 220   0  5  0 1.0152 -16.41    23.73     12.70    0.00    0.00  220.00 1.0000    0.00    0.00  0.0000  0.0052    0
 129 bus-129 220   0  3  0 1.0196 -12.36   121.90      7.40    0.00    0.00  220.00 1.0000    0.00    0.00  0.0000  0.0134    0
 130 bus-130 380   0 10  0 1.0579 -47.31    -0.00      0.00    0.00    0.00  380.00 1.0000    0.00    0.00  0.0014  0.4775    0
 131 bus-131 110   0 22  0 1.0324 -40.26    47.35     16.40    0.00    0.00  110.00 1.0000    0.00    0.00  0.0000  0.0408    0
 132 bus-132 380   0  1  0 1.0624 -43.94     0.00     -0.00    0.00    0.00  380.00 1.0000    0.00    0.00  0.0000  0.2139    0
 133 bus-133 150   0  8  0 1.0208   2.35    38.14     12.50    0.00    0.00  150.00 1.0000    0.00    0.00  0.0000  0.0628    0
 134 bus-134 400   0  1  0 1.0129   6.19    54.20      7.80    0.00    0.00  400.00 1.0000    0.00    0.00  0.0000  0.9490    0
 135 bus-135 220   0  7  0 1.0215 -22.44   130.60     84.90    0.00    0.00  220.00 1.0000    0.00    0.00  0.0000  0.0422    0
 136 bus-136 110   0 12  0 1.0065 -36.39     7.91      2.60    0.00    0.00  110.00 1.0000    0.00    0.00  0.0000  0.0074    0
 137 bus-137 150   0  1  0 1.0031  61.69    42.10     74.61    0.00    0.00  150.00 1.0000    0.00    0.00  0.0000  0.3758    0
 138 bus-138 380   0 10  0 1.0675 -41.99   -75.38      7.80    0.00    0.00  380.00 1.0000    0.00    0.00  0.0000  0.2990    0
 139 bus-139 380   0  8  0 1.0133  16.76    -0.00     -0.00    0.00    0.00  380.00 1.0000    0.00    0.00  0.0000  0.3692    0
 140 bus-140 220   0  8  0 1.0275  17.04     0.00      0.00    0.00    0.00  220.00 1.0000    0.00    0.00  0.0000  0.0414    0
 141 bus-141 220   0 13  2 1.0507  -2.17     0.00      0.00  -73.20    5.11  220.00 1.0507   18.59   -6.33  0.0000  0.0000    0
 142 bus-142 220   0  6  2 1.0423 -30.40     0.00      0.00  158.70    2.20  220.00 1.0423   78.15  -32.40  0.0000  0.0000    0
 143 bus-143 150   0  8  0 1.0223   3.88     0.00      0.00    0.00    0.00  150.00 1.0000    0.00    0.00  0.0000  0.0000    0
 144 bus-144 380   0 14  0 1.0638  18.93     0.00      0.00    0.00    0.00  380.00 1.0000    0.00    0.00  0.0000  0.9853    0
 145 bus-145 220   0  5  0 1.0382  -8.96    38.34      5.60    0.00    0.00  220.00 1.0000    0.00    0.00  0.0000  0.0764    0
 146 bus-146 120   0 20  0 1.0851 -25.64   269.60     65.70    0.00    0.00  120.00 1.0000    0.00    0.00  0.0000  0.0000    0
 147 bus-147 220   0  7  2 1.0580 -13.50     0.00      0.00  -16.00    9.74  220.00 1.0580   70.12  -29.50  0.0000  0.0000    0
 148 bus-148 220   0  5  0 1.0346  -8.22    32.34     12.00    0.00    0.00  220.00 1.0000    0.00    0.00  0.0000  0.0610    0
 149 bus-149 380   0  6  0 1.0216 -40.90   100.10     45.10    0.00    0.00  380.00 1.0000    0.00    0.00  0.0000  0.0111    0
 150 bus-150 220   0  5  2 1.0621   2.40     0.00      0.00   67.29   -5.08  220.00 1.0621   77.09  -22.54  0.0000  0.0000    0
 151 bus-151 154   0  1  2 1.0137 -24.08     0.00      0.00 -110.35  -11.36  154.00 1.0137   37.97  -58.18  0.0000  0.0000    0
 152 bus-152 154   0  1  0 1.0503  -5.82     7.00      1.00    0.00    0.00  154.00 1.0000    0.00    0.00  0.0000  0.0469    0
 153 bus-153 150   0  7  0 1.0203 -28.20    -0.00      0.00    0.00    0.00  150.00 1.0000    0.00    0.00  0.0000  0.0056    0
 154 bus-154 110   0 12  0 1.0165 -40.25     0.00      0.00    0.00    0.00  110.00 1.0000    0.00    0.00  0.0000  0.0129    0
 155 bus-155 110   0 21  0 1.0198 -29.30    -0.00     -0.00    0.00    0.00  110.00 1.0000    0.00    0.00  0.0000  0.0170    0
 156 bus-156 150   0  9  0 0.9531 -31.91    40.34     25.00    0.00    0.00  150.00 1.0000    0.00    0.00  0.0000  0.0114    0
 157 bus-157 110   0 19  0 1.0145 -13.07     9.21      3.30    0.00    0.00  110.00 1.0000    0.00    0.00  0.0000  0.0120    0
 158 bus-158 220   0  3  0 1.0147   6.15   166.00     60.30    0.00    0.00  220.00 1.0000    0.00    0.00  0.0000  0.0057    0
 159 bus-159 150   0  9  0 1.0213 -29.69     0.00     -0.00    0.00    0.00  150.00 1.0000    0.00    0.00  0.0000  0.0010    0
 160 bus-160 154   0  1  0 1.0310   0.81    79.40     11.30    0.00    0.00  154.00 1.0000    0.00    0.00  0.0000  0.0492    0
 161 bus-161 150   0  9  0 1.0910 -27.88    -0.00     -0.00    0.00    0.00  150.00 1.0000    0.00    0.00  0.0000  0.0016    0
 162 bus-162 380   0  6  0 1.0523 -15.69     0.00      0.00    0.00    0.00  380.00 1.0000    0.00    0.00  0.0000  0.6665    0
 163 bus-163 220   0  5  0 1.0454 -10.87   147.76     32.73    0.00    0.00  220.00 1.0000    0.00    0.00  0.0000  0.0834    0
 164 bus-164 150   0  8  0 1.0208  -1.15     0.00     -0.00    0.00    0.00  150.00 1.0000    0.00    0.00  0.0000  0.0517    0
 165 bus-165 380   0  9  0 1.0732 -24.14    26.80     -3.70    0.00    0.00  380.00 1.0000    0.00    0.00  0.0000  0.5126    0
 166 bus-166 220   0  3  2 1.0407  11.78     0.00      0.00  292.20  107.13  220.00 1.0407  127.67  -56.53  0.0000  0.0000    0
 167 bus-167 220   0  3  0 1.0311  -4.86   257.50    131.10    0.00    0.00  220.00 1.0000    0.00    0.00  0.0000  0.0108    0
 168 bus-168 154   0  1  0 1.0332  12.04    16.70      2.40    0.00    0.00  154.00 1.0000    0.00    0.00  0.0000  0.0609    0
 169 bus-169 150   0  9  0 1.0455 -29.42     0.00      0.00    0.00    0.00  150.00 1.0000    0.00    0.00  0.0000  0.0191    0
 170 bus-170 220   0  1  0 1.0115  34.76    -0.00     -0.00    0.00    0.00  220.00 1.0000    0.00    0.00  0.0000  0.0235    0
 171 bus-171 220   0  5  0 1.0620 -25.50   100.80     13.20    0.00    0.00  220.00 1.0000    0.00    0.00  0.0000  0.0524    0
 172 bus-172 220   0  4  0 1.0101 -47.14   111.70     10.96    0.00    0.00  220.00 1.0000    0.00    0.00  0.0000  0.0422    0
 173 bus-173 220   0 13  0 1.0544  14.63    90.38     -5.05    0.00    0.00  220.00 1.0000    0.00    0.00  0.0000  0.0849    0
 174 bus-174 220   0  5  0 1.0715 -28.24   370.50    -17.00    0.00    0.00  220.00 1.0000    0.00    0.00  0.0000  0.0991    0
 175 bus-175 110   0 12  0 1.0037 -41.37     9.91      3.20    0.00    0.00  110.00 1.0000    0.00    0.00  0.0000  0.0067    0
 176 bus-176 150   0  9  0 1.0408 -28.53    -0.69     -5.46    0.00    0.00  150.00 1.0000    0.00    0.00  0.0000  0.0507    0
 177 bus-177 220   0 10  0 0.9698 -43.36    94.90     36.20    0.00    0.00  220.00 1.0000    0.00    0.00  0.0000  0.1646    0
 178 bus-178 150   0  9  0 1.0132 -30.42    81.09     48.00    0.00    0.00  150.00 1.0000    0.00    0.00  0.0000  0.0003    0
 179 bus-179 380   0  4  2 1.0437 -50.05     0.00      0.00 -179.20  -30.19  380.00 1.0437   52.64  -51.72  0.0000  0.0000    0
 180 bus-180 110   0 21  0 1.0295 -28.10     0.00      0.00    0.00    0.00  110.00 1.0000    0.00    0.00  0.0000  0.0054    0
 181 bus-181 110   0 22  0 1.0405 -39.64    54.96     16.90    0.00    0.00  110.00 1.0000    0.00    0.00  0.0000  0.0337    0
 182 bus-182 220   0  3  0 1.0355  39.32    19.32     26.00    0.00    0.00  220.00 1.0000    0.00    0.00  0.0000  0.0069    0
 183 bus-183 150   0  9  0 1.0315 -29.24     0.00      0.00    0.00    0.00  150.00 1.0000    0.00    0.00  0.0000  0.0183    0
 184 bus-184 220   0  5  0 1.0375 -12.25    -0.00     -0.00    0.00    0.00  220.00 1.0000    0.00    0.00  0.0000  0.0242    0
 185 bus-185 154   0  1  0 1.0080  -7.23    20.90      3.00    0.00    0.00  154.00 1.0000    0.00    0.00  0.0000  0.0411    0
 186 bus-186 110   0 21  0 1.0095 -30.52    19.92      6.60    0.00    0.00  110.00 1.0000    0.00    0.00  0.0000  0.0056    0
 187 bus-187 110   0 22  0 1.0023 -38.46    57.16      2.00    0.00    0.00  110.00 1.0000    0.00    0.00  0.0000  0.0148    0
 188 bus-188 220   0  5  0 1.0152 -19.83    36.84     13.90    0.00    0.00  220.00 1.0000    0.00    0.00  0.0000  0.0330    0
 189 bus-189 110   0 18  0 1.0012 -27.78   -15.04     -5.12    0.00    0.00  110.00 1.0000    0.00    0.00  0.0000  0.0043    0
 190 bus-190 110   0 19  2 1.0255 -21.44     0.00      0.00   90.69   31.00  110.00 1.0255   54.24  -20.63  0.0000  0.0000    0
 191 bus-191 220   0  6  0 1.0164 -36.48     0.00     -0.00    0.00    0.00  220.00 1.0000    0.00    0.00  0.0000  0.1419    0
 192 bus-192 380   0  3  2 1.0484  66.01     0.00      0.00  135.80   12.15  380.00 1.0484   91.61  -30.98  0.0000  0.0000    0
 193 bus-193 220   0  3  0 1.0319  24.42   119.90      3.70    0.00    0.00  220.00 1.0000    0.00    0.00  0.0000  0.0333    0
 194 bus-194 150   0  8  2 1.0293  13.23     0.00      0.00  268.60   42.20  150.00 1.0293  130.19  -53.53  0.0000  0.0000    0
 195 bus-195 220   0  5  0 1.0489  -9.19    73.14     21.55    0.00    0.00  220.00 1.0000    0.00    0.00  0.0000  0.0852    0
 196 bus-196 220   0  5  0 1.0691 -26.72     0.00     -0.00    0.00    0.00  220.00 1.0000    0.00    0.00  0.0000  0.1248    0
 197 bus-197 380   0  3  2 1.1000  44.83     0.00      0.00  292.20  -57.05  380.00 1.1000  123.89  -59.54  0.0000  0.0000    0
 198 bus-198 220   0  5  0 1.0113 -16.66    39.74     11.80    0.00    0.00  220.00 1.0000    0.00    0.00  0.0000  0.0144    0
 199 bus-199 150   0  8  0 1.0172   0.54    86.80     28.40    0.00    0.00  150.00 1.0000    0.00    0.00  0.0000  0.0134    0
 200 bus-200 150   0  1  0 1.0110  61.57    22.42      2.10    0.00    0.00  150.00 1.0000    0.00    0.00  0.0000  0.0019    0
...
-999
BRANCH DATA FOLLOWS                   16049 ITEMS
3097 5147  1  1 1 0  0.000600  0.006160   0.00000   823     0     0    0 0  0.0000    0.00      0      0      0       0      0
8763 5147  1  1 1 0  0.000500  0.007400   0.00000   921     0     0    0 0  0.0000    0.00      0      0      0       0      0
3124 2169  1  1 1 0  0.001070  0.006260   0.00000   476     0     0    0 0  0.0000    0.00      0      0      0       0      0
3234 2169  1  1 1 0  0.000841  0.005500   0.00000   476     0     0    0 0  0.0000    0.00      0      0      0       0      0
 711 3517  1  1 1 0  0.001430  0.015630   0.00000  1645     0     0    0 0  0.0000    0.00      0      0      0       0      0
4533 3517  1  1 1 0  0.001460  0.016920   0.00000  1711     0     0    0 0  0.0000    0.00      0      0      0       0      0
5425  427  1  1 1 0  0.000070  0.000570   0.00000  1711     0     0    0 0  0.0000    0.00      0      0      0       0      0
4704  427  1  1 1 0  0.000060  0.000560   0.00000  1514     0     0    0 0  0.0000    0.00      0      0      0       0      0
7431 5960  1  1 1 0  0.003349  0.016560   0.00000     0     0     0    0 0  0.0000    0.00      0      0      0       0      0
3186 5960  1  1 1 0  0.003409  0.016211   0.00000     0     0     0    0 0  0.0000    0.00      0      0      0       0      0
7431 4481  1  1 1 0  0.003479  0.015860   0.00000     0     0     0    0 0  0.0000    0.00      0      0      0       0      0
3186 4481  1  1 1 0  0.003099  0.017969   0.00000     0     0     0    0 0  0.0000    0.00      0      0      0       0      0
9203  531  1  1 1 0  0.001270  0.018420   0.00000   823     0     0    0 0  0.0000    0.00      0      0      0       0      0
 835  531  1  1 1 0  0.001260  0.018470   0.00000  1547     0     0    0 0  0.0000    0.00      0      0      0       0      0
 118 1656  1  1 1 0  0.001300  0.018080   0.00000  1218     0     0    0 0  0.0000    0.00      0      0      0       0      0
3449 1656  1  1 1 0  0.001310  0.017650   0.00000  1744     0     0    0 0  0.0000    0.00      0      0      0       0      0
1809 5084  1  1 1 0  0.000650  0.013110   0.00000  2793     0     0    0 0  0.0000    0.00      0      0      0       0      0
6398 5084  1  1 1 0  0.000670  0.009740   0.00000  2598     0     0    0 0  0.0000    0.00      0      0      0       0      0
7833 5205  1  1 1 0  0.002360  0.014180   0.00000   553     0     0    0 0  0.0000    0.00      0      0      0       0      0
7770 5205  1  1 1 0  0.002169  0.015909   0.00000   514     0     0    0 0  0.0000    0.00      0      0      0       0      0
1278  354  1  1 1 0  0.000270  0.002540   0.00000  1349     0     0    0 0  0.0000    0.00      0      0      0       0      0
7617  354  1  1 1 0  0.000270  0.002590   0.00000  1119     0     0    0 0  0.0000    0.00      0      0      0       0      0
1278 2611  1  1 1 0  0.000330  0.003020   0.00000  1448     0     0    0 0  0.0000    0.00      0      0      0       0      0
 905 2611  1  1 1 0  0.000290  0.003120   0.00000  1613     0     0    0 0  0.0000    0.00      0      0      0       0      0
6542 1842  1  1 1 0  0.000289  0.001370   0.00000   533     0     0    0 0  0.0000    0.00      0      0      0       0      0
7622 1842  1  1 1 0  0.000219  0.002630   0.00000     0     0     0    0 0  0.0000    0.00      0      0      0       0      0
6542 2134  1  1 1 0  0.000289  0.001341   0.00000   457     0     0    0 0  0.0000    0.00      0      0      0       0      0
8785 2134  1  1 1 0  0.000229  0.002570   0.00000     0     0     0    0 0  0.0000    0.00      0      0      0       0      0
6542 6613  1  1 1 0  0.000841  0.006890   0.00000   514     0     0    0 0  0.0000    0.00      0      0      0       0      0
1651 6613  1  1 1 0  0.000979  0.005860   0.00000   495     0     0    0 0  0.0000    0.00      0      0      0       0      0
6542 5773  1  1 1 0  0.000140  0.001200   0.00000     0     0     0    0 0  0.0000    0.00      0      0      0       0      0
7840 5773  1  1 1 0  0.000211  0.001539   0.00000     0     0     0    0 0  0.0000    0.00      0      0      0       0      0
6542 5214  1  1 1 0  0.000401  0.004901   0.00000     0     0     0    0 0  0.0000    0.00      0      0      0       0      0
7840 5214  1  1 1 0  0.000219  0.001510   0.00000   533     0     0    0 0  0.0000    0.00      0      0      0       0      0
6542 8072  1  1 1 0  0.000729  0.004539   0.00000   495     0     0    0 0  0.0000    0.00      0      0      0       0      0
2759 8072  1  1 1 0  0.000620  0.004820   0.00000   495     0     0    0 0  0.0000    0.00      0      0      0       0      0
6069 2971  1  1 1 0  0.000520  0.004070   0.00000  1481     0     0    0 0  0.0000    0.00      0      0      0       0      0
3445 2971  1  1 1 0  0.000340  0.005020   0.00000  1843     0     0    0 0  0.0000    0.00      0      0      0       0      0
6069 7561  1  1 1 0  0.000650  0.006980   0.00000  1711     0     0    0 0  0.0000    0.00      0      0      0       0      0
8825 7561  1  1 1 0  0.000590  0.008060   0.00000  1678     0     0    0 0  0.0000    0.00      0      0      0       0      0
8864 6748  1  1 1 0  0.000630  0.004640   0.00000   495     0     0    0 0  0.0000    0.00      0      0      0       0      0
5078 6748  1  1 1 0  0.000599  0.005099   0.00000   533     0     0    0 0  0.0000    0.00      0      0      0       0      0
4785 4956  1  1 1 0  0.000640  0.003070   0.00000     0     0     0    0 0  0.0000    0.00      0      0      0       0      0
7667 4956  1  1 1 0  0.000659  0.003000   0.00000     0     0     0    0 0  0.0000    0.00      0      0      0       0      0
6775 8619  1  1 1 0  0.000530  0.005280   0.00000  1086     0     0    0 0  0.0000    0.00      0      0      0       0      0
8195 8619  1  1 1 0  0.000560  0.005300   0.00000  1283     0     0    0 0  0.0000    0.00      0      0      0       0      0
4785 3107  1  1 1 0  0.001800  0.007919   0.00000     0     0     0    0 0  0.0000    0.00      0      0      0       0      0
7154 3107  1  1 1 0  0.001651  0.008620   0.00000     0     0     0    0 0  0.0000    0.00      0      0      0       0      0
6775 5437  1  1 1 0  0.000450  0.005450   0.00000  1382     0     0    0 0  0.0000    0.00      0      0      0       0      0
 905 5437  1  1 1 0  0.000520  0.004760   0.00000  1547     0     0    0 0  0.0000    0.00      0      0      0       0      0
6876 2282  1  1 1 0  0.012860  0.037421   0.00000     0     0     0    0 0  0.0000    0.00      0      0      0       0      0
5654 2282  1  1 1 0  0.032397  0.123000   0.00000     0     0     0    0 0  0.0000    0.00      0      0      0       0      0
6876  474  1  1 1 0  0.032851  0.069727   0.00000     0     0     0    0 0  0.0000    0.00      0      0      0       0      0
8045  474  1  1 1 0  0.059942  0.112802   0.00000     0     0     0    0 0  0.0000    0.00      0      0      0       0      0
7472 7917  1  1 1 0  0.000110  0.001090   0.00000  1086     0     0    0 0  0.0000    0.00      0      0      0       0      0
8899 7917  1  1 1 0  0.000110  0.001070   0.00000  1185     0     0    0 0  0.0000    0.00      0      0      0       0      0
7681 6225  1  1 1 0  0.000461  0.003950   0.00000   629     0     0    0 0  0.0000    0.00      0      0      0       0      0
1508 6225  1  1 1 0  0.000599  0.003789   0.00000   591     0     0    0 0  0.0000    0.00      0      0      0       0      0
6568 7118  1  1 1 0  0.001730  0.015420   0.00000   987     0     0    0 0  0.0000    0.00      0      0      0       0      0
4346 7118  1  1 1 0  0.001660  0.020830   0.00000  1119     0     0    0 0  0.0000    0.00      0      0      0       0      0
8850 3469  1  1 1 0  0.006314  0.018488   0.00000     0     0     0    0 0  0.0000    0.00      0      0      0       0      0
1997 3469  1  1 1 0  0.015727  0.037669   0.00000     0     0     0    0 0  0.0000    0.00      0      0      0       0      0
7058 7556  1  1 1 0  0.003740  0.020950   0.00000   800     0     0    0 0  0.0000    0.00      0      0      0       0      0
4324 7556  1  1 1 0  0.005110  0.019461   0.00000   800     0     0    0 0  0.0000    0.00      0      0      0       0      0
2867 1069  1  1 1 0  0.011281  0.050771   0.00000   457     0     0    0 0  0.0000    0.00      0      0      0       0      0
2588 1069  1  1 1 0  0.011500  0.049719   0.00000   438     0     0    0 0  0.0000    0.00      0      0      0       0      0
2867 3945  1  1 1 0  0.011719  0.048659   0.00000   438     0     0    0 0  0.0000    0.00      0      0      0       0      0
2588 3945  1  1 1 0  0.011930  0.047599   0.00000   438     0     0    0 0  0.0000    0.00      0      0      0       0      0
2962  132  1  1 1 0  0.000640  0.007150   0.00000  1481     0     0    0 0  0.0000    0.00      0      0      0       0      0
4393  132  1  1 1 0  0.000890  0.007120   0.00000  1283     0     0    0 0  0.0000    0.00      0      0      0       0      0
 693 5044  1  1 1 0  0.000480  0.005550   0.00000   987     0     0    0 0  0.0000    0.00      0      0      0       0      0
7860 5044  1  1 1 0  0.000470  0.005660   0.00000  1086     0     0    0 0  0.0000    0.00      0      0      0       0      0
 693 6883  1  1 1 0  0.000460  0.005240   0.00000  1053     0     0    0 0  0.0000    0.00      0      0      0       0      0
7860 6883  1  1 1 0  0.000520  0.005140   0.00000  1053     0     0    0 0  0.0000    0.00      0      0      0       0      0
4503 1456  1  1 1 0  0.004380  0.010686   0.00000     0     0     0    0 0  0.0000    0.00      0      0      0       0      0
6658 1456  1  1 1 0  0.031347  0.062653   0.00000     0     0     0    0 0  0.0000    0.00      0      0      0       0      0
4945 6494  1  1 1 0  0.000290  0.002980   0.00000  1613     0     0    0 0  0.0000    0.00      0      0      0       0      0
6080 6494  1  1 1 0  0.000300  0.002910   0.00000  1514     0     0    0 0  0.0000    0.00      0      0      0       0      0
9010 1384  1  1 1 0  0.001550  0.015290   0.00000  1185     0     0    0 0  0.0000    0.00      0      0      0       0      0
3146 1384  1  1 1 0  0.001480  0.015200   0.00000  1283     0     0    0 0  0.0000    0.00      0      0      0       0      0
8142 8697  1  1 1 0  0.000169  0.000960   0.00000   312     0     0    0 0  0.0000    0.00      0      0      0       0      0
6195 8697  1  1 1 0  0.000182  0.000942   0.00000   312     0     0    0 0  0.0000    0.00      0      0      0       0      0
 424 5665  1  1 1 0  0.000160  0.001840   0.00000     0     0     0    0 0  0.0000    0.00      0      0      0       0      0
7235 5665  1  1 1 0  0.000220  0.002870   0.00000     0     0     0    0 0  0.0000    0.00      0      0      0       0      0
6497 3852  1  1 1 0  0.000150  0.001870   0.00000     0     0     0    0 0  0.0000    0.00      0      0      0       0      0
4779 3852  1  1 1 0  0.000220  0.002660   0.00000     0     0     0    0 0  0.0000    0.00      0      0      0       0      0
8885  674  1  1 1 0  0.001380  0.017400   0.00000  1316     0     0    0 0  0.0000    0.00      0      0      0       0      0
3115  674  1  1 1 0  0.002720  0.028800   0.00000  1086     0     0    0 0  0.0000    0.00      0      0      0       0      0
5177 8126  1  1 1 0  0.000650  0.010240   0.00000  1843     0     0    0 0  0.0000    0.00      0      0      0       0      0
6007 8126  1  1 1 0  0.000730  0.010040   0.00000  1876     0     0    0 0  0.0000    0.00      0      0      0       0      0
5177 8935  1  1 1 0  0.000750  0.009830   0.00000  1909     0     0    0 0  0.0000    0.00      0      0      0       0      0
6007 8935  1  1 1 0  0.000760  0.009630   0.00000  1909     0     0    0 0  0.0000    0.00      0      0      0       0      0
7388 7146  1  1 1 0  0.000420  0.026660   0.00000  1185     0     0    0 0  0.0000    0.00      0      0      0       0      0
8855 4003  1  1 1 0  0.000290  0.002600   0.00000     0     0     0    0 0  0.0000    0.00      0      0      0       0      0
5781 4003  1  1 1 0  0.000220  0.003030   0.00000  1185     0     0    0 0  0.0000    0.00      0      0      0       0      0
3761 6996  1  1 1 0  0.001000  0.006159   0.00000     0     0     0    0 0  0.0000    0.00      0      0      0       0      0
9108 6996  1  1 1 0  0.001130  0.006570   0.00000   533     0     0    0 0  0.0000    0.00      0      0      0       0      0
8258 1212  1  1 1 0  0.001300  0.012770   0.00000  1316     0     0    0 0  0.0000    0.00      0      0      0       0      0
7330 1212  1  1 1 0  0.001630  0.018080   0.00000  1382     0     0    0 0  0.0000    0.00      0      0      0       0      0
 106 8644  1  1 1 0  0.000470  0.004060   0.00000  1316     0     0    0 0  0.0000    0.00      0      0      0       0      0
5883 8644  1  1 1 0  0.002350  0.023430   0.00000  1316     0     0    0 0  0.0000    0.00      0      0      0       0      0
6413   97  1  1 1 0  0.000360  0.004450   0.00000  1547     0     0    0 0  0.0000    0.00      0      0      0       0      0
1644   97  1  1 1 0  0.000170  0.002500   0.00000  1909     0     0    0 0  0.0000    0.00      0      0      0       0      0
6413 4379  1  1 1 0  0.000360  0.004360   0.00000  1580     0     0    0 0  0.0000    0.00      0      0      0       0      0
3483 4379  1  1 1 0  0.000170  0.002550   0.00000  1810     0     0    0 0  0.0000    0.00      0      0      0       0      0
3208 1885  1  1 1 0  0.000960  0.009950   0.00000  1349     0     0    0 0  0.0000    0.00      0      0      0       0      0
6790 1885  1  1 1 0  0.001520  0.019490   0.00000  1382     0     0    0 0  0.0000    0.00      0      0      0       0      0
3208 5314  1  1 1 0  0.000940  0.010140   0.00000  1251     0     0    0 0  0.0000    0.00      0      0      0       0      0
6790 5314  1  1 1 0  0.001490  0.019860   0.00000  1415     0     0    0 0  0.0000    0.00      0      0      0       0      0
3208 2885  1  1 1 0  0.001070  0.012430   0.00000  1152     0     0    0 0  0.0000    0.00      0      0      0       0      0
2585 2885  1  1 1 0  0.001020  0.010340   0.00000  1218     0     0    0 0  0.0000    0.00      0      0      0       0      0
4848 3717  1  1 1 0  0.004700  0.020610   0.00000   438     0     0    0 0  0.0000    0.00      0      0      0       0      0
3688 3717  1  1 1 0  0.007390  0.040531   0.00000   400     0     0    0 0  0.0000    0.00      0      0      0       0      0
8640 6064  1  1 1 0  0.000490  0.006110   0.00000  1942     0     0    0 0  0.0000    0.00      0      0      0       0      0
7330 6064  1  1 1 0  0.000350  0.004310   0.00000  1547     0     0    0 0  0.0000    0.00      0      0      0       0      0
1029 5377  1  1 1 0  0.002610  0.013440   0.00000   419     0     0    0 0  0.0000    0.00      0      0      0       0      0
3525 5377  1  1 1 0  0.003521  0.019591   0.00000   419     0     0    0 0  0.0000    0.00      0      0      0       0      0
3431 6870  1  1 1 0  0.002500  0.014190   0.00000     0     0     0    0 0  0.0000    0.00      0      0      0       0      0
5046 6870  1  1 1 0  0.002870  0.023700   0.00000   381     0     0    0 0  0.0000    0.00      0      0      0       0      0
6743 6693  1  1 1 0  0.000880  0.009560   0.00000  1547     0     0    0 0  0.0000    0.00      0      0      0       0      0
 287 6693  1  1 1 0  0.000950  0.008770   0.00000  1382     0     0    0 0  0.0000    0.00      0      0      0       0      0
 752 2053  1  1 1 0  0.003320  0.020651   0.00000   457     0     0    0 0  0.0000    0.00      0      0      0       0      0
3048 2053  1  1 1 0  0.003969  0.018781   0.00000   457     0     0    0 0  0.0000    0.00      0      0      0       0      0
2738 2893  1  1 1 0  0.002849  0.014909   0.00000   438     0     0    0 0  0.0000    0.00      0      0      0       0      0
1575 2893  1  1 1 0  0.004390  0.024510   0.00000   438     0     0    0 0  0.0000    0.00      0      0      0       0      0
8687 1524  1  1 1 0  0.000200  0.001800   0.00000     0     0     0    0 0  0.0000    0.00      0      0      0       0      0
8393 1524  1  1 1 0  0.000250  0.002610   0.00000     0     0     0    0 0  0.0000    0.00      0      0      0       0      0
8687 7369  1  1 1 0  0.000200  0.001760   0.00000     0     0     0    0 0  0.0000    0.00      0      0      0       0      0
 139 7369  1  1 1 0  0.000250  0.002550   0.00000  1909     0     0    0 0  0.0000    0.00      0      0      0       0      0
6176 1019  1  1 1 0  0.012488  0.047413   0.00000     0     0     0    0 0  0.0000    0.00      0      0      0       0      0
7177 1019  1  1 1 0  0.010479  0.027711   0.00000     0     0     0    0 0  0.0000    0.00      0      0      0       0      0
7458 2607  1  1 1 0  0.000440  0.004280   0.00000  1810     0     0    0 0  0.0000    0.00      0      0      0       0      0
1337 2607  1  1 1 0  0.000360  0.004750   0.00000     0     0     0    0 0  0.0000    0.00      0      0      0       0      0
5239 4735  1  1 1 0  0.000580  0.005340   0.00000  1876     0     0    0 0  0.0000    0.00      0      0      0       0      0
3145 4735  1  1 1 0  0.000540  0.005890   0.00000  1843     0     0    0 0  0.0000    0.00      0      0      0       0      0
1429 2941  1  1 1 0  0.002060  0.020570   0.00000  1152     0     0    0 0  0.0000    0.00      0      0      0       0      0
1542 2941  1  1 1 0  0.000770  0.008720   0.00000   954     0     0    0 0  0.0000    0.00      0      0      0       0      0
9183 3773  1  1 1 0  0.001610  0.019630   0.00000  1349     0     0    0 0  0.0000    0.00      0      0      0       0      0
1542 3773  1  1 1 0  0.000750  0.008880   0.00000  1382     0     0    0 0  0.0000    0.00      0      0      0       0      0
7261 1937  1  1 1 0  0.000160  0.001520   0.00000  1645     0     0    0 0  0.0000    0.00      0      0      0       0      0
5479 1937  1  1 1 0  0.000190  0.001630   0.00000  1711     0     0    0 0  0.0000    0.00      0      0      0       0      0
7261 5473  1  1 1 0  0.000150  0.001600   0.00000  1547     0     0    0 0  0.0000    0.00      0      0      0       0      0
5479 5473  1  1 1 0  0.000150  0.001830   0.00000  1645     0     0    0 0  0.0000    0.00      0      0      0       0      0
3290 3648  1  1 1 0  0.001210  0.014260   0.00000  1415     0     0    0 0  0.0000    0.00      0      0      0       0      0
5523 3648  1  1 1 0  0.001160  0.014560   0.00000  1448     0     0    0 0  0.0000    0.00      0      0      0       0      0
 144  451  1  1 1 0  0.000680  0.007270   0.00000  1777     0     0    0 0  0.0000    0.00      0      0      0       0      0
1601  451  1  1 1 0  0.000700  0.007340   0.00000  1876     0     0    0 0  0.0000    0.00      0      0      0       0      0
 144 7898  1  1 1 0  0.000760  0.007120   0.00000  1580     0     0    0 0  0.0000    0.00      0      0      0       0      0
1601 7898  1  1 1 0  0.000800  0.007190   0.00000  1909     0     0    0 0  0.0000    0.00      0      0      0       0      0
1582 2105  1  1 1 0  0.000200  0.002200   0.00000  1218     0     0    0 0  0.0000    0.00      0      0      0       0      0
7416 2105  1  1 1 0  0.000200  0.002200   0.00000  1251     0     0    0 0  0.0000    0.00      0      0      0       0      0
2046  270  1  1 1 0  0.000205  0.002150   0.00000  1415     0     0    0 0  0.0000    0.00      0      0      0       0      0
7416  270  1  1 1 0  0.000205  0.002150   0.00000  1448     0     0    0 0  0.0000    0.00      0      0      0       0      0
8433 5938  1  1 1 0  0.000530  0.005890   0.00000  1316     0     0    0 0  0.0000    0.00      0      0      0       0      0
 816 5938  1  1 1 0  0.000460  0.006750   0.00000  1119     0     0    0 0  0.0000    0.00      0      0      0       0      0
8433 8539  1  1 1 0  0.000540  0.005770   0.00000  1316     0     0    0 0  0.0000    0.00      0      0      0       0      0
 816 8539  1  1 1 0  0.000450  0.006250   0.00000  1086     0     0    0 0  0.0000    0.00      0      0      0       0      0
1544 1654  1  1 1 0  0.002750  0.027520   0.00000  1382     0     0    0 0  0.0000    0.00      0      0      0       0      0
7674 1654  1  1 1 0  0.001840  0.015150   0.00000  1316     0     0    0 0  0.0000    0.00      0      0      0       0      0
4150 2323  1  1 1 0  0.004380  0.024320   0.00000     0     0     0    0 0  0.0000    0.00      0      0      0       0      0
 599 2323  1  1 1 0  0.004300  0.019490   0.00000     0     0     0    0 0  0.0000    0.00      0      0      0       0      0
6999 8376  1  1 1 0  0.000330  0.002690   0.00000  1218     0     0    0 0  0.0000    0.00      0      0      0       0      0
4903 8376  1  1 1 0  0.002430  0.019040   0.00000  1119     0     0    0 0  0.0000    0.00      0      0      0       0      0
6999  942  1  1 1 0  0.000340  0.002630   0.00000  1119     0     0    0 0  0.0000    0.00      0      0      0       0      0
4903  942  1  1 1 0  0.002480  0.018640   0.00000  1086     0     0    0 0  0.0000    0.00      0      0      0       0      0
6190 6754  1  1 1 0  0.001220  0.012490   0.00000   987     0     0    0 0  0.0000    0.00      0      0      0       0      0
4055 6754  1  1 1 0  0.001060  0.010310   0.00000  1053     0     0    0 0  0.0000    0.00      0      0      0       0      0
6190 3313  1  1 1 0  0.001190  0.012730   0.00000   987     0     0    0 0  0.0000    0.00      0      0      0       0      0
4055 3313  1  1 1 0  0.001080  0.010090   0.00000  1086     0     0    0 0  0.0000    0.00      0      0      0       0      0
4401 1383  1  1 1 0  0.001039  0.013711   0.00000     0     0     0    0 0  0.0000    0.00      0      0      0       0      0
5145 1383  1  1 1 0  0.001140  0.011409   0.00000     0     0     0    0 0  0.0000    0.00      0      0      0       0      0
5878 7851  1  1 1 0  0.001021  0.013969   0.00000     0     0     0    0 0  0.0000    0.00      0      0      0       0      0
5145 7851  1  1 1 0  0.001169  0.011159   0.00000     0     0     0    0 0  0.0000    0.00      0      0      0       0      0
8201 8001  1  1 1 0  0.000000  0.000271   0.00000     0     0     0    0 0  0.0000    0.00      0      0      0       0      0
8201 2322  1  1 1 0  0.000000  0.000271   0.00000     0     0     0    0 0  0.0000    0.00      0      0      0       0      0
 154  843  1  1 1 0  0.009372  0.035702   0.00000     0     0     0    0 0  0.0000    0.00      0      0      0       0      0
3598  843  1  1 1 0  0.029157  0.103686   0.00000     0     0     0    0 0  0.0000    0.00      0      0      0       0      0
5527  529  1  1 1 0  0.000650  0.006730   0.00000  1514     0     0    0 0  0.0000    0.00      0      0      0       0      0
4164  529  1  1 1 0  0.000660  0.006580   0.00000  1678     0     0    0 0  0.0000    0.00      0      0      0       0      0
2487 3529  1  1 1 0  0.000969  0.006021   0.00000   553     0     0    0 0  0.0000    0.00      0      0      0       0      0
4167 3529  1  1 1 0  0.000990  0.005901   0.00000   381     0     0    0 0  0.0000    0.00      0      0      0       0      0
8598 1162  1  1 1 0  0.000880  0.006599   0.00000     0     0     0    0 0  0.0000    0.00      0      0      0       0      0
5325 1162  1  1 1 0  0.000860  0.006729   0.00000   495     0     0    0 0  0.0000    0.00      0      0      0       0      0
3277 8690  1  1 1 0  0.000090  0.000770   0.00000  1711     0     0    0 0  0.0000    0.00      0      0      0       0      0
4226 8690  1  1 1 0  0.000090  0.000780   0.00000  1580     0     0    0 0  0.0000    0.00      0      0      0       0      0
3277 4922  1  1 1 0  0.000080  0.000820   0.00000  1481     0     0    0 0  0.0000    0.00      0      0      0       0      0
7617 4922  1  1 1 0  0.000080  0.000760   0.00000  1251     0     0    0 0  0.0000    0.00      0      0      0       0      0
5527 6759  1  1 1 0  0.000090  0.000740   0.00000  1613     0     0    0 0  0.0000    0.00      0      0      0       0      0
4226 6759  1  1 1 0  0.000090  0.000730   0.00000  1251     0     0    0 0  0.0000    0.00      0      0      0       0      0
2487 4088  1  1 1 0  0.000620  0.003781   0.00000     0     0     0    0 0  0.0000    0.00      0      0      0       0      0
 782 4088  1  1 1 0  0.000599  0.003500   0.00000   553     0     0    0 0  0.0000    0.00      0      0      0       0      0
8598 6871  1  1 1 0  0.000640  0.002740   0.00000     0     0     0    0 0  0.0000    0.00      0      0      0       0      0
1346 6871  1  1 1 0  0.000651  0.002680   0.00000   610     0     0    0 0  0.0000    0.00      0      0      0       0      0
1369 6813  1  1 1 0  0.000550  0.006850   0.00000  1777     0     0    0 0  0.0000    0.00      0      0      0       0      0
 376 6813  1  1 1 0  0.000610  0.006390   0.00000  1843     0     0    0 0  0.0000    0.00      0      0      0       0      0
5527 6019  1  1 1 0  0.000420  0.005230   0.00000  1514     0     0    0 0  0.0000    0.00      0      0      0       0      0
8334 6019  1  1 1 0  0.000450  0.006050   0.00000  1481     0     0    0 0  0.0000    0.00      0      0      0       0      0
3277 5693  1  1 1 0  0.000300  0.002280   0.00000  1448     0     0    0 0  0.0000    0.00      0      0      0       0      0
8899 5693  1  1 1 0  0.000260  0.002640   0.00000  1218     0     0    0 0  0.0000    0.00      0      0      0       0      0
9230 3355  1  1 1 0  0.005360  0.035680   0.00000   553     0     0    0 0  0.0000    0.00      0      0      0       0      0
...
-999
LOSS ZONES FOLLOWS   0 ITEMS
-99
INTERCHANGE DATA FOLLOWS      0 ITEMS
-9
TIE LINES FOLLOWS             0 ITEMS
-999
END OF DATA